* NGSPICE file created from Microwatt_FP_DFFRFile.ext - technology: sky130A

* Black-box entry subcircuit for sky130_ef_sc_hd__decap_12 abstract view
.subckt sky130_ef_sc_hd__decap_12 VGND VNB VPB VPWR
.ends

* Black-box entry subcircuit for sky130_fd_sc_hd__dfxtp_1 abstract view
.subckt sky130_fd_sc_hd__dfxtp_1 CLK D VGND VNB VPB VPWR Q
.ends

* Black-box entry subcircuit for sky130_fd_sc_hd__fill_1 abstract view
.subckt sky130_fd_sc_hd__fill_1 VGND VNB VPB VPWR
.ends

* Black-box entry subcircuit for sky130_fd_sc_hd__diode_2 abstract view
.subckt sky130_fd_sc_hd__diode_2 DIODE VGND VNB VPB VPWR
.ends

* Black-box entry subcircuit for sky130_fd_sc_hd__fill_2 abstract view
.subckt sky130_fd_sc_hd__fill_2 VGND VNB VPB VPWR
.ends

* Black-box entry subcircuit for sky130_fd_sc_hd__decap_3 abstract view
.subckt sky130_fd_sc_hd__decap_3 VGND VNB VPB VPWR
.ends

* Black-box entry subcircuit for sky130_fd_sc_hd__decap_4 abstract view
.subckt sky130_fd_sc_hd__decap_4 VGND VNB VPB VPWR
.ends

* Black-box entry subcircuit for sky130_fd_sc_hd__a22o_1 abstract view
.subckt sky130_fd_sc_hd__a22o_1 A1 A2 B1 B2 VGND VNB VPB VPWR X
.ends

* Black-box entry subcircuit for sky130_fd_sc_hd__buf_6 abstract view
.subckt sky130_fd_sc_hd__buf_6 A VGND VNB VPB VPWR X
.ends

* Black-box entry subcircuit for sky130_fd_sc_hd__o211a_1 abstract view
.subckt sky130_fd_sc_hd__o211a_1 A1 A2 B1 C1 VGND VNB VPB VPWR X
.ends

* Black-box entry subcircuit for sky130_fd_sc_hd__mux4_1 abstract view
.subckt sky130_fd_sc_hd__mux4_1 A0 A1 A2 A3 S0 S1 VGND VNB VPB VPWR X
.ends

* Black-box entry subcircuit for sky130_fd_sc_hd__decap_6 abstract view
.subckt sky130_fd_sc_hd__decap_6 VGND VNB VPB VPWR
.ends

* Black-box entry subcircuit for sky130_fd_sc_hd__clkbuf_1 abstract view
.subckt sky130_fd_sc_hd__clkbuf_1 A VGND VNB VPB VPWR X
.ends

* Black-box entry subcircuit for sky130_fd_sc_hd__o21ba_1 abstract view
.subckt sky130_fd_sc_hd__o21ba_1 A1 A2 B1_N VGND VNB VPB VPWR X
.ends

* Black-box entry subcircuit for sky130_fd_sc_hd__buf_4 abstract view
.subckt sky130_fd_sc_hd__buf_4 A VGND VNB VPB VPWR X
.ends

* Black-box entry subcircuit for sky130_fd_sc_hd__decap_8 abstract view
.subckt sky130_fd_sc_hd__decap_8 VGND VNB VPB VPWR
.ends

* Black-box entry subcircuit for sky130_fd_sc_hd__buf_12 abstract view
.subckt sky130_fd_sc_hd__buf_12 A VGND VNB VPB VPWR X
.ends

* Black-box entry subcircuit for sky130_fd_sc_hd__mux2_1 abstract view
.subckt sky130_fd_sc_hd__mux2_1 A0 A1 S VGND VNB VPB VPWR X
.ends

* Black-box entry subcircuit for sky130_fd_sc_hd__clkbuf_4 abstract view
.subckt sky130_fd_sc_hd__clkbuf_4 A VGND VNB VPB VPWR X
.ends

* Black-box entry subcircuit for sky130_fd_sc_hd__tapvpwrvgnd_1 abstract view
.subckt sky130_fd_sc_hd__tapvpwrvgnd_1 VGND VPWR
.ends

* Black-box entry subcircuit for sky130_fd_sc_hd__buf_2 abstract view
.subckt sky130_fd_sc_hd__buf_2 A VGND VNB VPB VPWR X
.ends

* Black-box entry subcircuit for sky130_fd_sc_hd__clkbuf_16 abstract view
.subckt sky130_fd_sc_hd__clkbuf_16 A VGND VNB VPB VPWR X
.ends

* Black-box entry subcircuit for sky130_fd_sc_hd__mux4_2 abstract view
.subckt sky130_fd_sc_hd__mux4_2 A0 A1 A2 A3 S0 S1 VGND VNB VPB VPWR X
.ends

* Black-box entry subcircuit for sky130_fd_sc_hd__or4_1 abstract view
.subckt sky130_fd_sc_hd__or4_1 A B C D VGND VNB VPB VPWR X
.ends

* Black-box entry subcircuit for sky130_fd_sc_hd__nand2_8 abstract view
.subckt sky130_fd_sc_hd__nand2_8 A B VGND VNB VPB VPWR Y
.ends

* Black-box entry subcircuit for sky130_fd_sc_hd__clkbuf_8 abstract view
.subckt sky130_fd_sc_hd__clkbuf_8 A VGND VNB VPB VPWR X
.ends

* Black-box entry subcircuit for sky130_fd_sc_hd__or2_4 abstract view
.subckt sky130_fd_sc_hd__or2_4 A B VGND VNB VPB VPWR X
.ends

* Black-box entry subcircuit for sky130_fd_sc_hd__or4_2 abstract view
.subckt sky130_fd_sc_hd__or4_2 A B C D VGND VNB VPB VPWR X
.ends

* Black-box entry subcircuit for sky130_fd_sc_hd__clkbuf_2 abstract view
.subckt sky130_fd_sc_hd__clkbuf_2 A VGND VNB VPB VPWR X
.ends

* Black-box entry subcircuit for sky130_fd_sc_hd__nor2_8 abstract view
.subckt sky130_fd_sc_hd__nor2_8 A B VGND VNB VPB VPWR Y
.ends

* Black-box entry subcircuit for sky130_fd_sc_hd__or3b_1 abstract view
.subckt sky130_fd_sc_hd__or3b_1 A B C_N VGND VNB VPB VPWR X
.ends

* Black-box entry subcircuit for sky130_fd_sc_hd__or4_4 abstract view
.subckt sky130_fd_sc_hd__or4_4 A B C D VGND VNB VPB VPWR X
.ends

* Black-box entry subcircuit for sky130_fd_sc_hd__o21ba_2 abstract view
.subckt sky130_fd_sc_hd__o21ba_2 A1 A2 B1_N VGND VNB VPB VPWR X
.ends

* Black-box entry subcircuit for sky130_fd_sc_hd__buf_8 abstract view
.subckt sky130_fd_sc_hd__buf_8 A VGND VNB VPB VPWR X
.ends

* Black-box entry subcircuit for sky130_fd_sc_hd__and4_2 abstract view
.subckt sky130_fd_sc_hd__and4_2 A B C D VGND VNB VPB VPWR X
.ends

* Black-box entry subcircuit for sky130_fd_sc_hd__dfxtp_2 abstract view
.subckt sky130_fd_sc_hd__dfxtp_2 CLK D VGND VNB VPB VPWR Q
.ends

* Black-box entry subcircuit for sky130_fd_sc_hd__and3b_1 abstract view
.subckt sky130_fd_sc_hd__and3b_1 A_N B C VGND VNB VPB VPWR X
.ends

* Black-box entry subcircuit for sky130_fd_sc_hd__nor3_4 abstract view
.subckt sky130_fd_sc_hd__nor3_4 A B C VGND VNB VPB VPWR Y
.ends

* Black-box entry subcircuit for sky130_fd_sc_hd__o211a_2 abstract view
.subckt sky130_fd_sc_hd__o211a_2 A1 A2 B1 C1 VGND VNB VPB VPWR X
.ends

* Black-box entry subcircuit for sky130_fd_sc_hd__nor2_4 abstract view
.subckt sky130_fd_sc_hd__nor2_4 A B VGND VNB VPB VPWR Y
.ends

* Black-box entry subcircuit for sky130_fd_sc_hd__nand2b_4 abstract view
.subckt sky130_fd_sc_hd__nand2b_4 A_N B VGND VNB VPB VPWR Y
.ends

* Black-box entry subcircuit for sky130_fd_sc_hd__or2_1 abstract view
.subckt sky130_fd_sc_hd__or2_1 A B VGND VNB VPB VPWR X
.ends

* Black-box entry subcircuit for sky130_fd_sc_hd__nor3b_4 abstract view
.subckt sky130_fd_sc_hd__nor3b_4 A B C_N VGND VNB VPB VPWR Y
.ends

* Black-box entry subcircuit for sky130_fd_sc_hd__or2b_4 abstract view
.subckt sky130_fd_sc_hd__or2b_4 A B_N VGND VNB VPB VPWR X
.ends

* Black-box entry subcircuit for sky130_fd_sc_hd__nor2b_4 abstract view
.subckt sky130_fd_sc_hd__nor2b_4 A B_N VGND VNB VPB VPWR Y
.ends

* Black-box entry subcircuit for sky130_fd_sc_hd__or3_1 abstract view
.subckt sky130_fd_sc_hd__or3_1 A B C VGND VNB VPB VPWR X
.ends

* Black-box entry subcircuit for sky130_fd_sc_hd__and2_1 abstract view
.subckt sky130_fd_sc_hd__and2_1 A B VGND VNB VPB VPWR X
.ends

* Black-box entry subcircuit for sky130_fd_sc_hd__and2b_1 abstract view
.subckt sky130_fd_sc_hd__and2b_1 A_N B VGND VNB VPB VPWR X
.ends

* Black-box entry subcircuit for sky130_fd_sc_hd__or4b_1 abstract view
.subckt sky130_fd_sc_hd__or4b_1 A B C D_N VGND VNB VPB VPWR X
.ends

* Black-box entry subcircuit for sky130_fd_sc_hd__nand2_2 abstract view
.subckt sky130_fd_sc_hd__nand2_2 A B VGND VNB VPB VPWR Y
.ends

* Black-box entry subcircuit for sky130_fd_sc_hd__inv_2 abstract view
.subckt sky130_fd_sc_hd__inv_2 A VGND VNB VPB VPWR Y
.ends

.subckt Microwatt_FP_DFFRFile CLK D1[0] D1[10] D1[11] D1[12] D1[13] D1[14] D1[15]
+ D1[16] D1[17] D1[18] D1[19] D1[1] D1[20] D1[21] D1[22] D1[23] D1[24] D1[25] D1[26]
+ D1[27] D1[28] D1[29] D1[2] D1[30] D1[31] D1[32] D1[33] D1[34] D1[35] D1[36] D1[37]
+ D1[38] D1[39] D1[3] D1[40] D1[41] D1[42] D1[43] D1[44] D1[45] D1[46] D1[47] D1[48]
+ D1[49] D1[4] D1[50] D1[51] D1[52] D1[53] D1[54] D1[55] D1[56] D1[57] D1[58] D1[59]
+ D1[5] D1[60] D1[61] D1[62] D1[63] D1[6] D1[7] D1[8] D1[9] D2[0] D2[10] D2[11] D2[12]
+ D2[13] D2[14] D2[15] D2[16] D2[17] D2[18] D2[19] D2[1] D2[20] D2[21] D2[22] D2[23]
+ D2[24] D2[25] D2[26] D2[27] D2[28] D2[29] D2[2] D2[30] D2[31] D2[32] D2[33] D2[34]
+ D2[35] D2[36] D2[37] D2[38] D2[39] D2[3] D2[40] D2[41] D2[42] D2[43] D2[44] D2[45]
+ D2[46] D2[47] D2[48] D2[49] D2[4] D2[50] D2[51] D2[52] D2[53] D2[54] D2[55] D2[56]
+ D2[57] D2[58] D2[59] D2[5] D2[60] D2[61] D2[62] D2[63] D2[6] D2[7] D2[8] D2[9] D3[0]
+ D3[10] D3[11] D3[12] D3[13] D3[14] D3[15] D3[16] D3[17] D3[18] D3[19] D3[1] D3[20]
+ D3[21] D3[22] D3[23] D3[24] D3[25] D3[26] D3[27] D3[28] D3[29] D3[2] D3[30] D3[31]
+ D3[32] D3[33] D3[34] D3[35] D3[36] D3[37] D3[38] D3[39] D3[3] D3[40] D3[41] D3[42]
+ D3[43] D3[44] D3[45] D3[46] D3[47] D3[48] D3[49] D3[4] D3[50] D3[51] D3[52] D3[53]
+ D3[54] D3[55] D3[56] D3[57] D3[58] D3[59] D3[5] D3[60] D3[61] D3[62] D3[63] D3[6]
+ D3[7] D3[8] D3[9] DW[0] DW[10] DW[11] DW[12] DW[13] DW[14] DW[15] DW[16] DW[17]
+ DW[18] DW[19] DW[1] DW[20] DW[21] DW[22] DW[23] DW[24] DW[25] DW[26] DW[27] DW[28]
+ DW[29] DW[2] DW[30] DW[31] DW[32] DW[33] DW[34] DW[35] DW[36] DW[37] DW[38] DW[39]
+ DW[3] DW[40] DW[41] DW[42] DW[43] DW[44] DW[45] DW[46] DW[47] DW[48] DW[49] DW[4]
+ DW[50] DW[51] DW[52] DW[53] DW[54] DW[55] DW[56] DW[57] DW[58] DW[59] DW[5] DW[60]
+ DW[61] DW[62] DW[63] DW[6] DW[7] DW[8] DW[9] R1[0] R1[1] R1[2] R1[3] R1[4] R1[5]
+ R2[0] R2[1] R2[2] R2[3] R2[4] R2[5] R3[0] R3[1] R3[2] R3[3] R3[4] R3[5] RW[0] RW[1]
+ RW[2] RW[3] RW[4] RW[5] VGND VPWR WE
XFILLER_228_813 VGND VGND VPWR VPWR sky130_ef_sc_hd__decap_12
X_34984_ clknet_leaf_457_CLK _03098_ VGND VGND VPWR VPWR registers\[21\]\[26\] sky130_fd_sc_hd__dfxtp_1
XFILLER_79_391 VGND VGND VPWR VPWR sky130_fd_sc_hd__fill_1
XANTENNA_1360 _00166_ VGND VGND VPWR VPWR sky130_fd_sc_hd__diode_2
XFILLER_100_138 VGND VGND VPWR VPWR sky130_fd_sc_hd__fill_2
XANTENNA_1371 _00170_ VGND VGND VPWR VPWR sky130_fd_sc_hd__diode_2
XFILLER_227_312 VGND VGND VPWR VPWR sky130_fd_sc_hd__decap_3
XANTENNA_1382 _00171_ VGND VGND VPWR VPWR sky130_fd_sc_hd__diode_2
X_33935_ clknet_leaf_133_CLK _02049_ VGND VGND VPWR VPWR registers\[37\]\[1\] sky130_fd_sc_hd__dfxtp_1
XANTENNA_1393 _00172_ VGND VGND VPWR VPWR sky130_fd_sc_hd__diode_2
XFILLER_223_54 VGND VGND VPWR VPWR sky130_fd_sc_hd__fill_2
XFILLER_39_255 VGND VGND VPWR VPWR sky130_fd_sc_hd__decap_4
X_18869_ _05404_ _05616_ _05617_ _05410_ VGND VGND VPWR VPWR _05618_ sky130_fd_sc_hd__a22o_1
XFILLER_55_715 VGND VGND VPWR VPWR sky130_ef_sc_hd__decap_12
XFILLER_54_203 VGND VGND VPWR VPWR sky130_fd_sc_hd__fill_1
X_20900_ _07377_ VGND VGND VPWR VPWR _07593_ sky130_fd_sc_hd__buf_6
X_21880_ _08540_ _08544_ _08405_ _08406_ VGND VGND VPWR VPWR _08545_ sky130_fd_sc_hd__o211a_1
X_33866_ clknet_leaf_153_CLK _01980_ VGND VGND VPWR VPWR registers\[3\]\[60\] sky130_fd_sc_hd__dfxtp_1
XFILLER_227_389 VGND VGND VPWR VPWR sky130_fd_sc_hd__decap_3
X_35605_ clknet_leaf_79_CLK _03719_ VGND VGND VPWR VPWR registers\[11\]\[7\] sky130_fd_sc_hd__dfxtp_1
X_20831_ registers\[24\]\[4\] registers\[25\]\[4\] registers\[26\]\[4\] registers\[27\]\[4\]
+ _07524_ _07525_ VGND VGND VPWR VPWR _07526_ sky130_fd_sc_hd__mux4_1
X_32817_ clknet_leaf_367_CLK _00931_ VGND VGND VPWR VPWR registers\[55\]\[35\] sky130_fd_sc_hd__dfxtp_1
XFILLER_36_973 VGND VGND VPWR VPWR sky130_fd_sc_hd__decap_6
X_33797_ clknet_leaf_250_CLK _01911_ VGND VGND VPWR VPWR registers\[40\]\[55\] sky130_fd_sc_hd__dfxtp_1
XFILLER_82_589 VGND VGND VPWR VPWR sky130_fd_sc_hd__fill_2
X_23550_ _09934_ VGND VGND VPWR VPWR _00442_ sky130_fd_sc_hd__clkbuf_1
X_35536_ clknet_leaf_138_CLK _03650_ VGND VGND VPWR VPWR registers\[12\]\[2\] sky130_fd_sc_hd__dfxtp_1
X_20762_ _07455_ _07458_ _07370_ VGND VGND VPWR VPWR _07459_ sky130_fd_sc_hd__o21ba_1
X_32748_ clknet_leaf_371_CLK _00862_ VGND VGND VPWR VPWR registers\[56\]\[30\] sky130_fd_sc_hd__dfxtp_1
X_22501_ _07312_ VGND VGND VPWR VPWR _09148_ sky130_fd_sc_hd__buf_4
XFILLER_126_1137 VGND VGND VPWR VPWR sky130_fd_sc_hd__decap_8
XFILLER_17_1410 VGND VGND VPWR VPWR sky130_fd_sc_hd__decap_4
XFILLER_50_442 VGND VGND VPWR VPWR sky130_fd_sc_hd__fill_2
X_23481_ _09898_ VGND VGND VPWR VPWR _00409_ sky130_fd_sc_hd__clkbuf_1
X_35467_ clknet_leaf_150_CLK _03581_ VGND VGND VPWR VPWR registers\[14\]\[61\] sky130_fd_sc_hd__dfxtp_1
XFILLER_210_223 VGND VGND VPWR VPWR sky130_fd_sc_hd__fill_1
X_20693_ _07328_ VGND VGND VPWR VPWR _07392_ sky130_fd_sc_hd__buf_12
XFILLER_56_1470 VGND VGND VPWR VPWR sky130_ef_sc_hd__decap_12
X_32679_ clknet_leaf_436_CLK _00793_ VGND VGND VPWR VPWR registers\[57\]\[25\] sky130_fd_sc_hd__dfxtp_1
XFILLER_168_29 VGND VGND VPWR VPWR sky130_fd_sc_hd__fill_2
XFILLER_52_1323 VGND VGND VPWR VPWR sky130_fd_sc_hd__fill_1
X_22432_ registers\[36\]\[50\] registers\[37\]\[50\] registers\[38\]\[50\] registers\[39\]\[50\]
+ _08978_ _08979_ VGND VGND VPWR VPWR _09081_ sky130_fd_sc_hd__mux4_1
X_25220_ _10760_ registers\[51\]\[14\] _10876_ VGND VGND VPWR VPWR _10881_ sky130_fd_sc_hd__mux2_1
XFILLER_17_1465 VGND VGND VPWR VPWR sky130_fd_sc_hd__fill_2
X_34418_ clknet_leaf_411_CLK _02532_ VGND VGND VPWR VPWR registers\[30\]\[36\] sky130_fd_sc_hd__dfxtp_1
XFILLER_52_1345 VGND VGND VPWR VPWR sky130_fd_sc_hd__fill_1
X_35398_ clknet_leaf_215_CLK _03512_ VGND VGND VPWR VPWR registers\[15\]\[56\] sky130_fd_sc_hd__dfxtp_1
XFILLER_210_278 VGND VGND VPWR VPWR sky130_fd_sc_hd__decap_6
XFILLER_17_1476 VGND VGND VPWR VPWR sky130_fd_sc_hd__decap_4
X_25151_ _10838_ registers\[52\]\[51\] _10836_ VGND VGND VPWR VPWR _10839_ sky130_fd_sc_hd__mux2_1
X_22363_ registers\[56\]\[48\] registers\[57\]\[48\] registers\[58\]\[48\] registers\[59\]\[48\]
+ _08880_ _09013_ VGND VGND VPWR VPWR _09014_ sky130_fd_sc_hd__mux4_1
XFILLER_52_1389 VGND VGND VPWR VPWR sky130_fd_sc_hd__decap_4
X_34349_ clknet_leaf_403_CLK _02463_ VGND VGND VPWR VPWR registers\[31\]\[31\] sky130_fd_sc_hd__dfxtp_1
XFILLER_248_73 VGND VGND VPWR VPWR sky130_fd_sc_hd__decap_4
X_24102_ _09642_ registers\[5\]\[61\] _10160_ VGND VGND VPWR VPWR _10228_ sky130_fd_sc_hd__mux2_1
X_21314_ _07301_ VGND VGND VPWR VPWR _07995_ sky130_fd_sc_hd__clkbuf_4
XFILLER_164_867 VGND VGND VPWR VPWR sky130_fd_sc_hd__fill_1
X_25082_ _10791_ registers\[52\]\[29\] _10773_ VGND VGND VPWR VPWR _10792_ sky130_fd_sc_hd__mux2_1
XFILLER_108_249 VGND VGND VPWR VPWR sky130_fd_sc_hd__decap_3
XFILLER_164_878 VGND VGND VPWR VPWR sky130_ef_sc_hd__decap_12
X_22294_ registers\[60\]\[46\] registers\[61\]\[46\] registers\[62\]\[46\] registers\[63\]\[46\]
+ _08884_ _08678_ VGND VGND VPWR VPWR _08947_ sky130_fd_sc_hd__mux4_1
X_28910_ _12858_ VGND VGND VPWR VPWR _02878_ sky130_fd_sc_hd__clkbuf_1
X_24033_ _09573_ registers\[5\]\[28\] _10183_ VGND VGND VPWR VPWR _10192_ sky130_fd_sc_hd__mux2_1
XFILLER_2_505 VGND VGND VPWR VPWR sky130_fd_sc_hd__decap_4
XFILLER_85_1121 VGND VGND VPWR VPWR sky130_ef_sc_hd__decap_12
X_21245_ _07924_ _07925_ _07926_ _07927_ VGND VGND VPWR VPWR _07928_ sky130_fd_sc_hd__a22o_1
X_36019_ clknet_leaf_356_CLK _04133_ VGND VGND VPWR VPWR registers\[63\]\[37\] sky130_fd_sc_hd__dfxtp_1
XFILLER_105_923 VGND VGND VPWR VPWR sky130_ef_sc_hd__decap_12
X_29890_ _13405_ VGND VGND VPWR VPWR _03311_ sky130_fd_sc_hd__clkbuf_1
XFILLER_2_527 VGND VGND VPWR VPWR sky130_fd_sc_hd__fill_1
XFILLER_144_580 VGND VGND VPWR VPWR sky130_fd_sc_hd__decap_8
XFILLER_117_44 VGND VGND VPWR VPWR sky130_fd_sc_hd__decap_6
XFILLER_137_1233 VGND VGND VPWR VPWR sky130_fd_sc_hd__decap_4
XFILLER_46_1127 VGND VGND VPWR VPWR sky130_fd_sc_hd__decap_6
X_28841_ _12822_ VGND VGND VPWR VPWR _02845_ sky130_fd_sc_hd__clkbuf_1
XFILLER_78_807 VGND VGND VPWR VPWR sky130_fd_sc_hd__decap_4
X_21176_ registers\[0\]\[14\] registers\[1\]\[14\] registers\[2\]\[14\] registers\[3\]\[14\]
+ _07723_ _07724_ VGND VGND VPWR VPWR _07861_ sky130_fd_sc_hd__mux4_1
XFILLER_81_1018 VGND VGND VPWR VPWR sky130_fd_sc_hd__decap_3
XFILLER_137_1266 VGND VGND VPWR VPWR sky130_ef_sc_hd__decap_12
XFILLER_85_1198 VGND VGND VPWR VPWR sky130_fd_sc_hd__decap_8
XFILLER_89_166 VGND VGND VPWR VPWR sky130_fd_sc_hd__fill_2
XFILLER_104_477 VGND VGND VPWR VPWR sky130_fd_sc_hd__decap_6
X_20127_ registers\[32\]\[50\] registers\[33\]\[50\] registers\[34\]\[50\] registers\[35\]\[50\]
+ _06809_ _06810_ VGND VGND VPWR VPWR _06840_ sky130_fd_sc_hd__mux4_1
XFILLER_133_1119 VGND VGND VPWR VPWR sky130_fd_sc_hd__fill_1
XFILLER_120_937 VGND VGND VPWR VPWR sky130_ef_sc_hd__decap_12
XFILLER_77_328 VGND VGND VPWR VPWR sky130_fd_sc_hd__decap_8
X_28772_ _11857_ registers\[26\]\[61\] _12718_ VGND VGND VPWR VPWR _12786_ sky130_fd_sc_hd__mux2_1
XFILLER_89_188 VGND VGND VPWR VPWR sky130_fd_sc_hd__fill_1
X_25984_ _11287_ VGND VGND VPWR VPWR _01523_ sky130_fd_sc_hd__clkbuf_1
XFILLER_150_1433 VGND VGND VPWR VPWR sky130_fd_sc_hd__fill_1
X_27723_ registers\[33\]\[11\] _10328_ _12233_ VGND VGND VPWR VPWR _12235_ sky130_fd_sc_hd__mux2_1
XFILLER_24_1447 VGND VGND VPWR VPWR sky130_fd_sc_hd__decap_8
XFILLER_213_1165 VGND VGND VPWR VPWR sky130_fd_sc_hd__decap_8
X_20058_ registers\[36\]\[48\] registers\[37\]\[48\] registers\[38\]\[48\] registers\[39\]\[48\]
+ _06742_ _06743_ VGND VGND VPWR VPWR _06773_ sky130_fd_sc_hd__mux4_1
X_24935_ _09594_ registers\[53\]\[38\] _10691_ VGND VGND VPWR VPWR _10700_ sky130_fd_sc_hd__mux2_1
XFILLER_86_862 VGND VGND VPWR VPWR sky130_fd_sc_hd__decap_6
XFILLER_46_704 VGND VGND VPWR VPWR sky130_fd_sc_hd__fill_1
XFILLER_92_309 VGND VGND VPWR VPWR sky130_fd_sc_hd__decap_4
XTAP_3202 VGND VPWR sky130_fd_sc_hd__tapvpwrvgnd_1
XFILLER_246_654 VGND VGND VPWR VPWR sky130_fd_sc_hd__decap_4
XFILLER_18_417 VGND VGND VPWR VPWR sky130_fd_sc_hd__decap_3
XTAP_3213 VGND VPWR sky130_fd_sc_hd__tapvpwrvgnd_1
XTAP_3224 VGND VPWR sky130_fd_sc_hd__tapvpwrvgnd_1
XFILLER_133_87 VGND VGND VPWR VPWR sky130_fd_sc_hd__fill_1
X_27654_ _12198_ VGND VGND VPWR VPWR _02282_ sky130_fd_sc_hd__clkbuf_1
XTAP_3235 VGND VPWR sky130_fd_sc_hd__tapvpwrvgnd_1
XFILLER_248_1217 VGND VGND VPWR VPWR sky130_ef_sc_hd__decap_12
X_24866_ _09525_ registers\[53\]\[5\] _10658_ VGND VGND VPWR VPWR _10664_ sky130_fd_sc_hd__mux2_1
XFILLER_45_225 VGND VGND VPWR VPWR sky130_ef_sc_hd__decap_12
XTAP_2501 VGND VPWR sky130_fd_sc_hd__tapvpwrvgnd_1
XTAP_3246 VGND VPWR sky130_fd_sc_hd__tapvpwrvgnd_1
XANTENNA_202 _00053_ VGND VGND VPWR VPWR sky130_fd_sc_hd__diode_2
XTAP_2512 VGND VPWR sky130_fd_sc_hd__tapvpwrvgnd_1
XTAP_3257 VGND VPWR sky130_fd_sc_hd__tapvpwrvgnd_1
XANTENNA_213 _00054_ VGND VGND VPWR VPWR sky130_fd_sc_hd__diode_2
X_26605_ _11614_ VGND VGND VPWR VPWR _01817_ sky130_fd_sc_hd__clkbuf_1
XTAP_2523 VGND VPWR sky130_fd_sc_hd__tapvpwrvgnd_1
XTAP_3268 VGND VPWR sky130_fd_sc_hd__tapvpwrvgnd_1
XFILLER_233_337 VGND VGND VPWR VPWR sky130_fd_sc_hd__fill_1
X_23817_ _10077_ VGND VGND VPWR VPWR _00566_ sky130_fd_sc_hd__clkbuf_1
XTAP_2534 VGND VPWR sky130_fd_sc_hd__tapvpwrvgnd_1
XTAP_3279 VGND VPWR sky130_fd_sc_hd__tapvpwrvgnd_1
XFILLER_199_720 VGND VGND VPWR VPWR sky130_fd_sc_hd__fill_2
XANTENNA_224 _00056_ VGND VGND VPWR VPWR sky130_fd_sc_hd__diode_2
X_27585_ _12150_ VGND VGND VPWR VPWR _12162_ sky130_fd_sc_hd__buf_6
XFILLER_33_409 VGND VGND VPWR VPWR sky130_fd_sc_hd__decap_4
XTAP_1800 VGND VPWR sky130_fd_sc_hd__tapvpwrvgnd_1
XTAP_2545 VGND VPWR sky130_fd_sc_hd__tapvpwrvgnd_1
XANTENNA_235 _00056_ VGND VGND VPWR VPWR sky130_fd_sc_hd__diode_2
XFILLER_27_984 VGND VGND VPWR VPWR sky130_fd_sc_hd__decap_3
XTAP_1811 VGND VPWR sky130_fd_sc_hd__tapvpwrvgnd_1
X_24797_ _10627_ VGND VGND VPWR VPWR _00996_ sky130_fd_sc_hd__clkbuf_1
XTAP_2556 VGND VPWR sky130_fd_sc_hd__tapvpwrvgnd_1
XANTENNA_246 _00057_ VGND VGND VPWR VPWR sky130_fd_sc_hd__diode_2
XTAP_1822 VGND VPWR sky130_fd_sc_hd__tapvpwrvgnd_1
XANTENNA_257 _00057_ VGND VGND VPWR VPWR sky130_fd_sc_hd__diode_2
X_29324_ _09764_ registers\[22\]\[35\] _13102_ VGND VGND VPWR VPWR _13108_ sky130_fd_sc_hd__mux2_1
XFILLER_54_781 VGND VGND VPWR VPWR sky130_fd_sc_hd__decap_8
XTAP_2567 VGND VPWR sky130_fd_sc_hd__tapvpwrvgnd_1
X_26536_ _11577_ VGND VGND VPWR VPWR _01785_ sky130_fd_sc_hd__clkbuf_1
XANTENNA_268 _00058_ VGND VGND VPWR VPWR sky130_fd_sc_hd__diode_2
XTAP_1833 VGND VPWR sky130_fd_sc_hd__tapvpwrvgnd_1
XTAP_2578 VGND VPWR sky130_fd_sc_hd__tapvpwrvgnd_1
X_23748_ _10041_ VGND VGND VPWR VPWR _00533_ sky130_fd_sc_hd__clkbuf_1
XTAP_1844 VGND VPWR sky130_fd_sc_hd__tapvpwrvgnd_1
XTAP_2589 VGND VPWR sky130_fd_sc_hd__tapvpwrvgnd_1
XFILLER_109_1324 VGND VGND VPWR VPWR sky130_fd_sc_hd__decap_8
XFILLER_14_645 VGND VGND VPWR VPWR sky130_fd_sc_hd__decap_6
XANTENNA_279 _00058_ VGND VGND VPWR VPWR sky130_fd_sc_hd__diode_2
XTAP_1855 VGND VPWR sky130_fd_sc_hd__tapvpwrvgnd_1
XFILLER_201_201 VGND VGND VPWR VPWR sky130_fd_sc_hd__fill_2
XTAP_1866 VGND VPWR sky130_fd_sc_hd__tapvpwrvgnd_1
XFILLER_41_442 VGND VGND VPWR VPWR sky130_fd_sc_hd__decap_6
X_29255_ _09662_ registers\[22\]\[2\] _13069_ VGND VGND VPWR VPWR _13072_ sky130_fd_sc_hd__mux2_1
XTAP_1877 VGND VPWR sky130_fd_sc_hd__tapvpwrvgnd_1
XFILLER_57_1289 VGND VGND VPWR VPWR sky130_fd_sc_hd__decap_3
XTAP_1888 VGND VPWR sky130_fd_sc_hd__tapvpwrvgnd_1
XFILLER_70_1401 VGND VGND VPWR VPWR sky130_ef_sc_hd__decap_12
X_26467_ _11541_ VGND VGND VPWR VPWR _01752_ sky130_fd_sc_hd__clkbuf_1
X_23679_ _10003_ VGND VGND VPWR VPWR _00502_ sky130_fd_sc_hd__clkbuf_1
XTAP_1899 VGND VPWR sky130_fd_sc_hd__tapvpwrvgnd_1
X_16220_ _14540_ _14728_ _14729_ _14551_ VGND VGND VPWR VPWR _14730_ sky130_fd_sc_hd__a22o_1
X_28206_ _12488_ VGND VGND VPWR VPWR _02544_ sky130_fd_sc_hd__clkbuf_1
XFILLER_70_1423 VGND VGND VPWR VPWR sky130_fd_sc_hd__decap_4
XFILLER_224_1261 VGND VGND VPWR VPWR sky130_fd_sc_hd__decap_3
X_25418_ _10985_ VGND VGND VPWR VPWR _01259_ sky130_fd_sc_hd__clkbuf_1
X_29186_ registers\[23\]\[43\] _13025_ _13019_ VGND VGND VPWR VPWR _13026_ sky130_fd_sc_hd__mux2_1
X_26398_ _10848_ registers\[43\]\[56\] _11498_ VGND VGND VPWR VPWR _11505_ sky130_fd_sc_hd__mux2_1
XFILLER_201_278 VGND VGND VPWR VPWR sky130_fd_sc_hd__fill_2
XFILLER_201_289 VGND VGND VPWR VPWR sky130_fd_sc_hd__fill_2
XFILLER_155_801 VGND VGND VPWR VPWR sky130_ef_sc_hd__decap_12
XFILLER_107_1081 VGND VGND VPWR VPWR sky130_fd_sc_hd__fill_2
XFILLER_173_119 VGND VGND VPWR VPWR sky130_fd_sc_hd__fill_1
X_16151_ _14528_ _14661_ _14662_ _14537_ VGND VGND VPWR VPWR _14663_ sky130_fd_sc_hd__a22o_1
X_28137_ _12452_ VGND VGND VPWR VPWR _02511_ sky130_fd_sc_hd__clkbuf_1
XFILLER_10_862 VGND VGND VPWR VPWR sky130_fd_sc_hd__decap_6
X_25349_ _10949_ VGND VGND VPWR VPWR _01226_ sky130_fd_sc_hd__clkbuf_1
X_16082_ registers\[16\]\[0\] registers\[17\]\[0\] registers\[18\]\[0\] registers\[19\]\[0\]
+ _14593_ _14595_ VGND VGND VPWR VPWR _14596_ sky130_fd_sc_hd__mux4_1
X_28068_ _11828_ registers\[31\]\[47\] _12408_ VGND VGND VPWR VPWR _12416_ sky130_fd_sc_hd__mux2_1
XFILLER_127_569 VGND VGND VPWR VPWR sky130_fd_sc_hd__fill_1
XFILLER_5_332 VGND VGND VPWR VPWR sky130_fd_sc_hd__fill_1
XFILLER_181_163 VGND VGND VPWR VPWR sky130_fd_sc_hd__decap_4
XFILLER_154_377 VGND VGND VPWR VPWR sky130_fd_sc_hd__decap_4
X_27019_ _11862_ VGND VGND VPWR VPWR _01983_ sky130_fd_sc_hd__clkbuf_1
X_19910_ registers\[16\]\[43\] registers\[17\]\[43\] registers\[18\]\[43\] registers\[19\]\[43\]
+ _06386_ _06387_ VGND VGND VPWR VPWR _06630_ sky130_fd_sc_hd__mux4_1
XFILLER_194_1371 VGND VGND VPWR VPWR sky130_fd_sc_hd__fill_1
X_30030_ _13423_ VGND VGND VPWR VPWR _13479_ sky130_fd_sc_hd__buf_4
X_19841_ _06525_ _06561_ _06562_ _06528_ VGND VGND VPWR VPWR _06563_ sky130_fd_sc_hd__a22o_1
XFILLER_116_1317 VGND VGND VPWR VPWR sky130_ef_sc_hd__decap_12
XFILLER_68_306 VGND VGND VPWR VPWR sky130_fd_sc_hd__fill_2
XFILLER_190_1257 VGND VGND VPWR VPWR sky130_fd_sc_hd__decap_3
XFILLER_68_328 VGND VGND VPWR VPWR sky130_ef_sc_hd__decap_12
XFILLER_122_285 VGND VGND VPWR VPWR sky130_fd_sc_hd__fill_1
XFILLER_110_425 VGND VGND VPWR VPWR sky130_fd_sc_hd__decap_6
X_19772_ _06495_ VGND VGND VPWR VPWR _00032_ sky130_fd_sc_hd__buf_2
X_16984_ _15468_ _15471_ _15269_ VGND VGND VPWR VPWR _15472_ sky130_fd_sc_hd__o21ba_1
XFILLER_96_648 VGND VGND VPWR VPWR sky130_fd_sc_hd__decap_8
XFILLER_95_147 VGND VGND VPWR VPWR sky130_ef_sc_hd__decap_12
X_18723_ _05469_ _05474_ _05475_ VGND VGND VPWR VPWR _05476_ sky130_fd_sc_hd__o21ba_1
XFILLER_67_70 VGND VGND VPWR VPWR sky130_fd_sc_hd__decap_6
XTAP_5160 VGND VPWR sky130_fd_sc_hd__tapvpwrvgnd_1
X_31981_ clknet_leaf_21_CLK _00152_ VGND VGND VPWR VPWR net114 sky130_fd_sc_hd__dfxtp_1
XFILLER_77_873 VGND VGND VPWR VPWR sky130_fd_sc_hd__fill_1
XFILLER_95_169 VGND VGND VPWR VPWR sky130_fd_sc_hd__decap_3
XTAP_5171 VGND VPWR sky130_fd_sc_hd__tapvpwrvgnd_1
XFILLER_237_654 VGND VGND VPWR VPWR sky130_fd_sc_hd__decap_4
XTAP_5182 VGND VPWR sky130_fd_sc_hd__tapvpwrvgnd_1
XFILLER_114_1063 VGND VGND VPWR VPWR sky130_ef_sc_hd__decap_12
XTAP_5193 VGND VPWR sky130_fd_sc_hd__tapvpwrvgnd_1
XFILLER_7_1198 VGND VGND VPWR VPWR sky130_ef_sc_hd__decap_12
XFILLER_190_82 VGND VGND VPWR VPWR sky130_fd_sc_hd__fill_2
X_18654_ registers\[48\]\[8\] registers\[49\]\[8\] registers\[50\]\[8\] registers\[51\]\[8\]
+ _05407_ _05408_ VGND VGND VPWR VPWR _05409_ sky130_fd_sc_hd__mux4_1
X_33720_ clknet_leaf_339_CLK _01834_ VGND VGND VPWR VPWR registers\[41\]\[42\] sky130_fd_sc_hd__dfxtp_1
X_30932_ registers\[10\]\[29\] _12995_ _13944_ VGND VGND VPWR VPWR _13954_ sky130_fd_sc_hd__mux2_1
XTAP_4470 VGND VPWR sky130_fd_sc_hd__tapvpwrvgnd_1
Xclkbuf_leaf_6_CLK clknet_6_1__leaf_CLK VGND VGND VPWR VPWR clknet_leaf_6_CLK sky130_fd_sc_hd__clkbuf_16
XTAP_4481 VGND VPWR sky130_fd_sc_hd__tapvpwrvgnd_1
XTAP_4492 VGND VPWR sky130_fd_sc_hd__tapvpwrvgnd_1
XFILLER_18_951 VGND VGND VPWR VPWR sky130_fd_sc_hd__decap_3
X_17605_ registers\[12\]\[43\] registers\[13\]\[43\] registers\[14\]\[43\] registers\[15\]\[43\]
+ _04387_ _04388_ VGND VGND VPWR VPWR _04389_ sky130_fd_sc_hd__mux4_1
XFILLER_236_197 VGND VGND VPWR VPWR sky130_fd_sc_hd__decap_8
X_30863_ _13917_ VGND VGND VPWR VPWR _03772_ sky130_fd_sc_hd__clkbuf_1
X_18585_ registers\[52\]\[6\] registers\[53\]\[6\] registers\[54\]\[6\] registers\[55\]\[6\]
+ _05340_ _05341_ VGND VGND VPWR VPWR _05342_ sky130_fd_sc_hd__mux4_1
XFILLER_36_269 VGND VGND VPWR VPWR sky130_fd_sc_hd__decap_4
X_33651_ clknet_leaf_348_CLK _01765_ VGND VGND VPWR VPWR registers\[42\]\[37\] sky130_fd_sc_hd__dfxtp_1
XTAP_3780 VGND VPWR sky130_fd_sc_hd__tapvpwrvgnd_1
XFILLER_64_589 VGND VGND VPWR VPWR sky130_fd_sc_hd__decap_4
XFILLER_149_1159 VGND VGND VPWR VPWR sky130_fd_sc_hd__decap_3
XFILLER_75_1312 VGND VGND VPWR VPWR sky130_fd_sc_hd__fill_1
XTAP_3791 VGND VPWR sky130_fd_sc_hd__tapvpwrvgnd_1
XFILLER_45_781 VGND VGND VPWR VPWR sky130_fd_sc_hd__decap_3
X_32602_ clknet_leaf_84_CLK _00716_ VGND VGND VPWR VPWR registers\[58\]\[12\] sky130_fd_sc_hd__dfxtp_1
X_17536_ registers\[4\]\[41\] registers\[5\]\[41\] registers\[6\]\[41\] registers\[7\]\[41\]
+ _15903_ _15904_ VGND VGND VPWR VPWR _04322_ sky130_fd_sc_hd__mux4_1
X_33582_ clknet_leaf_348_CLK _01696_ VGND VGND VPWR VPWR registers\[43\]\[32\] sky130_fd_sc_hd__dfxtp_1
XFILLER_75_1345 VGND VGND VPWR VPWR sky130_fd_sc_hd__decap_6
XFILLER_178_915 VGND VGND VPWR VPWR sky130_fd_sc_hd__decap_8
X_30794_ _13881_ VGND VGND VPWR VPWR _03739_ sky130_fd_sc_hd__clkbuf_1
XFILLER_189_252 VGND VGND VPWR VPWR sky130_fd_sc_hd__decap_4
XFILLER_44_291 VGND VGND VPWR VPWR sky130_ef_sc_hd__decap_12
XFILLER_205_584 VGND VGND VPWR VPWR sky130_fd_sc_hd__decap_3
XFILLER_162_1315 VGND VGND VPWR VPWR sky130_fd_sc_hd__fill_1
XFILLER_33_965 VGND VGND VPWR VPWR sky130_fd_sc_hd__decap_4
XANTENNA_780 _08338_ VGND VGND VPWR VPWR sky130_fd_sc_hd__diode_2
X_32533_ clknet_leaf_74_CLK _00647_ VGND VGND VPWR VPWR registers\[5\]\[7\] sky130_fd_sc_hd__dfxtp_1
XANTENNA_791 _08905_ VGND VGND VPWR VPWR sky130_fd_sc_hd__diode_2
X_35321_ clknet_leaf_310_CLK _03435_ VGND VGND VPWR VPWR registers\[16\]\[43\] sky130_fd_sc_hd__dfxtp_1
XFILLER_127_1457 VGND VGND VPWR VPWR sky130_fd_sc_hd__decap_4
X_17467_ registers\[28\]\[39\] registers\[29\]\[39\] registers\[30\]\[39\] registers\[31\]\[39\]
+ _15707_ _15708_ VGND VGND VPWR VPWR _15942_ sky130_fd_sc_hd__mux4_1
XFILLER_60_773 VGND VGND VPWR VPWR sky130_ef_sc_hd__decap_12
XFILLER_220_554 VGND VGND VPWR VPWR sky130_fd_sc_hd__decap_4
XFILLER_203_1301 VGND VGND VPWR VPWR sky130_fd_sc_hd__fill_2
XFILLER_177_447 VGND VGND VPWR VPWR sky130_fd_sc_hd__fill_1
X_16418_ _14504_ VGND VGND VPWR VPWR _14922_ sky130_fd_sc_hd__clkbuf_4
X_19206_ registers\[28\]\[23\] registers\[29\]\[23\] registers\[30\]\[23\] registers\[31\]\[23\]
+ _05913_ _05914_ VGND VGND VPWR VPWR _05946_ sky130_fd_sc_hd__mux4_1
X_32464_ clknet_leaf_176_CLK _00578_ VGND VGND VPWR VPWR registers\[60\]\[2\] sky130_fd_sc_hd__dfxtp_1
X_35252_ clknet_leaf_417_CLK _03366_ VGND VGND VPWR VPWR registers\[17\]\[38\] sky130_fd_sc_hd__dfxtp_1
XFILLER_220_587 VGND VGND VPWR VPWR sky130_fd_sc_hd__fill_1
XFILLER_207_1492 VGND VGND VPWR VPWR sky130_fd_sc_hd__fill_2
X_17398_ _15871_ _15874_ _15645_ VGND VGND VPWR VPWR _15875_ sky130_fd_sc_hd__o21ba_1
XFILLER_203_1334 VGND VGND VPWR VPWR sky130_fd_sc_hd__fill_1
XFILLER_186_970 VGND VGND VPWR VPWR sky130_fd_sc_hd__decap_8
XFILLER_192_417 VGND VGND VPWR VPWR sky130_fd_sc_hd__decap_3
XFILLER_186_981 VGND VGND VPWR VPWR sky130_fd_sc_hd__decap_4
X_31415_ _14208_ VGND VGND VPWR VPWR _04033_ sky130_fd_sc_hd__clkbuf_1
X_19137_ registers\[20\]\[21\] registers\[21\]\[21\] registers\[22\]\[21\] registers\[23\]\[21\]
+ _05846_ _05847_ VGND VGND VPWR VPWR _05879_ sky130_fd_sc_hd__mux4_1
X_34203_ clknet_leaf_18_CLK _02317_ VGND VGND VPWR VPWR registers\[33\]\[13\] sky130_fd_sc_hd__dfxtp_1
XFILLER_192_439 VGND VGND VPWR VPWR sky130_fd_sc_hd__fill_1
XFILLER_160_1072 VGND VGND VPWR VPWR sky130_fd_sc_hd__fill_2
X_16349_ _14527_ VGND VGND VPWR VPWR _14855_ sky130_fd_sc_hd__clkbuf_4
X_35183_ clknet_leaf_394_CLK _03297_ VGND VGND VPWR VPWR registers\[18\]\[33\] sky130_fd_sc_hd__dfxtp_1
X_32395_ clknet_leaf_167_CLK _00509_ VGND VGND VPWR VPWR registers\[61\]\[61\] sky130_fd_sc_hd__dfxtp_1
XFILLER_146_834 VGND VGND VPWR VPWR sky130_fd_sc_hd__decap_8
XFILLER_118_536 VGND VGND VPWR VPWR sky130_ef_sc_hd__decap_12
X_34134_ clknet_leaf_122_CLK _02248_ VGND VGND VPWR VPWR registers\[34\]\[8\] sky130_fd_sc_hd__dfxtp_1
XFILLER_199_1282 VGND VGND VPWR VPWR sky130_fd_sc_hd__decap_6
XFILLER_146_867 VGND VGND VPWR VPWR sky130_fd_sc_hd__fill_1
X_31346_ registers\[7\]\[33\] net27 _14168_ VGND VGND VPWR VPWR _14172_ sky130_fd_sc_hd__mux2_1
X_19068_ registers\[32\]\[20\] registers\[33\]\[20\] registers\[34\]\[20\] registers\[35\]\[20\]
+ _05780_ _05781_ VGND VGND VPWR VPWR _05811_ sky130_fd_sc_hd__mux4_1
XFILLER_172_141 VGND VGND VPWR VPWR sky130_fd_sc_hd__decap_4
XFILLER_105_208 VGND VGND VPWR VPWR sky130_ef_sc_hd__decap_12
X_18019_ registers\[8\]\[55\] registers\[9\]\[55\] registers\[10\]\[55\] registers\[11\]\[55\]